data/cases/case118.m
function mpc = case118
% MATPOWER case format for case118

mpc.version = '2';
mpc.baseMVA = 100.0;

% bus data
% bus_i type Pd Qd Gs Bs area Vm Va baseKV zone Vmax Vmin
mpc.bus = [
	1	2	51.0000	27.0000	0.0000	0.0000	1	0.9550	0.0000	138.0	1	2.0000	0.0000;
	2	1	20.0000	9.0000	0.0000	0.0000	1	1.0000	0.0000	138.0	1	2.0000	0.0000;
	3	1	39.0000	10.0000	0.0000	0.0000	1	1.0000	0.0000	138.0	1	2.0000	0.0000;
	4	2	39.0000	12.0000	0.0000	0.0000	1	0.9980	0.0000	138.0	1	2.0000	0.0000;
	5	1	0.0000	0.0000	0.0000	-40.0000	1	1.0000	0.0000	138.0	1	2.0000	0.0000;
	6	2	52.0000	22.0000	0.0000	0.0000	1	0.9900	0.0000	138.0	1	2.0000	0.0000;
	7	1	19.0000	2.0000	0.0000	0.0000	1	1.0000	0.0000	138.0	1	2.0000	0.0000;
	8	2	28.0000	0.0000	0.0000	0.0000	1	1.0150	0.0000	345.0	1	2.0000	0.0000;
	9	1	0.0000	0.0000	0.0000	0.0000	1	1.0000	0.0000	345.0	1	2.0000	0.0000;
	10	2	0.0000	0.0000	0.0000	0.0000	1	1.0500	0.0000	345.0	1	2.0000	0.0000;
	11	1	70.0000	23.0000	0.0000	0.0000	1	1.0000	0.0000	138.0	1	2.0000	0.0000;
	12	2	47.0000	10.0000	0.0000	0.0000	1	0.9900	0.0000	138.0	1	2.0000	0.0000;
	13	1	34.0000	16.0000	0.0000	0.0000	1	1.0000	0.0000	138.0	1	2.0000	0.0000;
	14	1	14.0000	1.0000	0.0000	0.0000	1	1.0000	0.0000	138.0	1	2.0000	0.0000;
	15	2	90.0000	30.0000	0.0000	0.0000	1	0.9700	0.0000	138.0	1	2.0000	0.0000;
	16	1	25.0000	10.0000	0.0000	0.0000	1	1.0000	0.0000	138.0	1	2.0000	0.0000;
	17	1	11.0000	3.0000	0.0000	0.0000	1	1.0000	0.0000	138.0	1	2.0000	0.0000;
	18	2	60.0000	34.0000	0.0000	0.0000	1	0.9730	0.0000	138.0	1	2.0000	0.0000;
	19	2	45.0000	25.0000	0.0000	0.0000	1	0.9620	0.0000	138.0	1	2.0000	0.0000;
	20	1	18.0000	3.0000	0.0000	0.0000	1	1.0000	0.0000	138.0	1	2.0000	0.0000;
	21	1	14.0000	8.0000	0.0000	0.0000	1	1.0000	0.0000	138.0	1	2.0000	0.0000;
	22	1	10.0000	5.0000	0.0000	0.0000	1	1.0000	0.0000	138.0	1	2.0000	0.0000;
	23	1	7.0000	3.0000	0.0000	0.0000	1	1.0000	0.0000	138.0	1	2.0000	0.0000;
	24	2	13.0000	0.0000	0.0000	0.0000	1	0.9920	0.0000	138.0	1	2.0000	0.0000;
	25	2	0.0000	0.0000	0.0000	0.0000	1	1.0500	0.0000	138.0	1	2.0000	0.0000;
	26	2	0.0000	0.0000	0.0000	0.0000	1	1.0150	0.0000	345.0	1	2.0000	0.0000;
	27	2	71.0000	13.0000	0.0000	0.0000	1	0.9680	0.0000	138.0	1	2.0000	0.0000;
	28	1	17.0000	7.0000	0.0000	0.0000	1	1.0000	0.0000	138.0	1	2.0000	0.0000;
	29	1	24.0000	4.0000	0.0000	0.0000	1	1.0000	0.0000	138.0	1	2.0000	0.0000;
	30	1	0.0000	0.0000	0.0000	0.0000	1	1.0000	0.0000	345.0	1	2.0000	0.0000;
	31	2	43.0000	27.0000	0.0000	0.0000	1	0.9670	0.0000	138.0	1	2.0000	0.0000;
	32	2	59.0000	23.0000	0.0000	0.0000	1	0.9630	0.0000	138.0	1	2.0000	0.0000;
	33	1	23.0000	9.0000	0.0000	0.0000	1	1.0000	0.0000	138.0	1	2.0000	0.0000;
	34	2	59.0000	26.0000	0.0000	14.0000	1	0.9840	0.0000	138.0	1	2.0000	0.0000;
	35	1	33.0000	9.0000	0.0000	0.0000	1	1.0000	0.0000	138.0	1	2.0000	0.0000;
	36	2	31.0000	17.0000	0.0000	0.0000	1	0.9800	0.0000	138.0	1	2.0000	0.0000;
	37	1	0.0000	0.0000	0.0000	-25.0000	1	1.0000	0.0000	138.0	1	2.0000	0.0000;
	38	1	0.0000	0.0000	0.0000	0.0000	1	1.0000	0.0000	345.0	1	2.0000	0.0000;
	39	1	27.0000	11.0000	0.0000	0.0000	1	1.0000	0.0000	138.0	1	2.0000	0.0000;
	40	2	66.0000	23.0000	0.0000	0.0000	1	0.9700	0.0000	138.0	1	2.0000	0.0000;
	41	1	37.0000	10.0000	0.0000	0.0000	1	1.0000	0.0000	138.0	1	2.0000	0.0000;
	42	2	96.0000	23.0000	0.0000	0.0000	1	0.9850	0.0000	138.0	1	2.0000	0.0000;
	43	1	18.0000	7.0000	0.0000	0.0000	1	1.0000	0.0000	138.0	1	2.0000	0.0000;
	44	1	16.0000	8.0000	0.0000	10.0000	1	1.0000	0.0000	138.0	1	2.0000	0.0000;
	45	1	53.0000	22.0000	0.0000	10.0000	1	1.0000	0.0000	138.0	1	2.0000	0.0000;
	46	2	28.0000	10.0000	0.0000	10.0000	1	1.0050	0.0000	138.0	1	2.0000	0.0000;
	47	1	34.0000	0.0000	0.0000	0.0000	1	1.0000	0.0000	138.0	1	2.0000	0.0000;
	48	1	20.0000	11.0000	0.0000	15.0000	1	1.0000	0.0000	138.0	1	2.0000	0.0000;
	49	2	87.0000	30.0000	0.0000	0.0000	1	1.0250	0.0000	138.0	1	2.0000	0.0000;
	50	1	17.0000	4.0000	0.0000	0.0000	1	1.0000	0.0000	138.0	1	2.0000	0.0000;
	51	1	17.0000	8.0000	0.0000	0.0000	1	1.0000	0.0000	138.0	1	2.0000	0.0000;
	52	1	18.0000	5.0000	0.0000	0.0000	1	1.0000	0.0000	138.0	1	2.0000	0.0000;
	53	1	23.0000	11.0000	0.0000	0.0000	1	1.0000	0.0000	138.0	1	2.0000	0.0000;
	54	2	113.0000	32.0000	0.0000	0.0000	1	0.9550	0.0000	138.0	1	2.0000	0.0000;
	55	2	63.0000	22.0000	0.0000	0.0000	1	0.9520	0.0000	138.0	1	2.0000	0.0000;
	56	2	84.0000	18.0000	0.0000	0.0000	1	0.9540	0.0000	138.0	1	2.0000	0.0000;
	57	1	12.0000	3.0000	0.0000	0.0000	1	1.0000	0.0000	138.0	1	2.0000	0.0000;
	58	1	12.0000	3.0000	0.0000	0.0000	1	1.0000	0.0000	138.0	1	2.0000	0.0000;
	59	2	277.0000	113.0000	0.0000	0.0000	1	0.9850	0.0000	138.0	1	2.0000	0.0000;
	60	1	78.0000	3.0000	0.0000	0.0000	1	1.0000	0.0000	138.0	1	2.0000	0.0000;
	61	2	0.0000	0.0000	0.0000	0.0000	1	0.9950	0.0000	138.0	1	2.0000	0.0000;
	62	2	77.0000	14.0000	0.0000	0.0000	1	0.9980	0.0000	138.0	1	2.0000	0.0000;
	63	1	0.0000	0.0000	0.0000	0.0000	1	1.0000	0.0000	345.0	1	2.0000	0.0000;
	64	1	0.0000	0.0000	0.0000	0.0000	1	1.0000	0.0000	345.0	1	2.0000	0.0000;
	65	2	0.0000	0.0000	0.0000	0.0000	1	1.0050	0.0000	345.0	1	2.0000	0.0000;
	66	2	39.0000	18.0000	0.0000	0.0000	1	1.0500	0.0000	138.0	1	2.0000	0.0000;
	67	1	28.0000	7.0000	0.0000	0.0000	1	1.0000	0.0000	138.0	1	2.0000	0.0000;
	68	1	0.0000	0.0000	0.0000	0.0000	1	1.0000	0.0000	161.0	1	2.0000	0.0000;
	69	3	0.0000	0.0000	0.0000	0.0000	1	1.0350	30.0000	138.0	1	2.0000	0.0000;
	70	2	66.0000	20.0000	0.0000	0.0000	1	0.9840	0.0000	138.0	1	2.0000	0.0000;
	71	1	0.0000	0.0000	0.0000	0.0000	1	1.0000	0.0000	138.0	1	2.0000	0.0000;
	72	2	12.0000	0.0000	0.0000	0.0000	1	0.9800	0.0000	138.0	1	2.0000	0.0000;
	73	2	6.0000	0.0000	0.0000	0.0000	1	0.9910	0.0000	138.0	1	2.0000	0.0000;
	74	2	68.0000	27.0000	0.0000	12.0000	1	0.9580	0.0000	138.0	1	2.0000	0.0000;
	75	1	47.0000	11.0000	0.0000	0.0000	1	1.0000	0.0000	138.0	1	2.0000	0.0000;
	76	2	68.0000	36.0000	0.0000	0.0000	1	0.9430	0.0000	138.0	1	2.0000	0.0000;
	77	2	61.0000	28.0000	0.0000	0.0000	1	1.0060	0.0000	138.0	1	2.0000	0.0000;
	78	1	71.0000	26.0000	0.0000	0.0000	1	1.0000	0.0000	138.0	1	2.0000	0.0000;
	79	1	39.0000	32.0000	0.0000	20.0000	1	1.0000	0.0000	138.0	1	2.0000	0.0000;
	80	2	130.0000	26.0000	0.0000	0.0000	1	1.0400	0.0000	138.0	1	2.0000	0.0000;
	81	1	0.0000	0.0000	0.0000	0.0000	1	1.0000	0.0000	345.0	1	2.0000	0.0000;
	82	1	54.0000	27.0000	0.0000	20.0000	1	1.0000	0.0000	138.0	1	2.0000	0.0000;
	83	1	20.0000	10.0000	0.0000	10.0000	1	1.0000	0.0000	138.0	1	2.0000	0.0000;
	84	1	11.0000	7.0000	0.0000	0.0000	1	1.0000	0.0000	138.0	1	2.0000	0.0000;
	85	2	24.0000	15.0000	0.0000	0.0000	1	0.9850	0.0000	138.0	1	2.0000	0.0000;
	86	1	21.0000	10.0000	0.0000	0.0000	1	1.0000	0.0000	138.0	1	2.0000	0.0000;
	87	2	0.0000	0.0000	0.0000	0.0000	1	1.0150	0.0000	161.0	1	2.0000	0.0000;
	88	1	48.0000	10.0000	0.0000	0.0000	1	1.0000	0.0000	138.0	1	2.0000	0.0000;
	89	2	0.0000	0.0000	0.0000	0.0000	1	1.0050	0.0000	138.0	1	2.0000	0.0000;
	90	2	163.0000	42.0000	0.0000	0.0000	1	0.9850	0.0000	138.0	1	2.0000	0.0000;
	91	2	10.0000	0.0000	0.0000	0.0000	1	0.9800	0.0000	138.0	1	2.0000	0.0000;
	92	2	65.0000	10.0000	0.0000	0.0000	1	0.9900	0.0000	138.0	1	2.0000	0.0000;
	93	1	12.0000	7.0000	0.0000	0.0000	1	1.0000	0.0000	138.0	1	2.0000	0.0000;
	94	1	30.0000	16.0000	0.0000	0.0000	1	1.0000	0.0000	138.0	1	2.0000	0.0000;
	95	1	42.0000	31.0000	0.0000	0.0000	1	1.0000	0.0000	138.0	1	2.0000	0.0000;
	96	1	38.0000	15.0000	0.0000	0.0000	1	1.0000	0.0000	138.0	1	2.0000	0.0000;
	97	1	15.0000	9.0000	0.0000	0.0000	1	1.0000	0.0000	138.0	1	2.0000	0.0000;
	98	1	34.0000	8.0000	0.0000	0.0000	1	1.0000	0.0000	138.0	1	2.0000	0.0000;
	99	2	42.0000	0.0000	0.0000	0.0000	1	1.0100	0.0000	138.0	1	2.0000	0.0000;
	100	2	37.0000	18.0000	0.0000	0.0000	1	1.0170	0.0000	138.0	1	2.0000	0.0000;
	101	1	22.0000	15.0000	0.0000	0.0000	1	1.0000	0.0000	138.0	1	2.0000	0.0000;
	102	1	5.0000	3.0000	0.0000	0.0000	1	1.0000	0.0000	138.0	1	2.0000	0.0000;
	103	2	23.0000	16.0000	0.0000	0.0000	1	1.0100	0.0000	138.0	1	2.0000	0.0000;
	104	2	38.0000	25.0000	0.0000	0.0000	1	0.9710	0.0000	138.0	1	2.0000	0.0000;
	105	2	31.0000	26.0000	0.0000	20.0000	1	0.9650	0.0000	138.0	1	2.0000	0.0000;
	106	1	43.0000	16.0000	0.0000	0.0000	1	1.0000	0.0000	138.0	1	2.0000	0.0000;
	107	2	50.0000	12.0000	0.0000	6.0000	1	0.9520	0.0000	138.0	1	2.0000	0.0000;
	108	1	2.0000	1.0000	0.0000	0.0000	1	1.0000	0.0000	138.0	1	2.0000	0.0000;
	109	1	8.0000	3.0000	0.0000	0.0000	1	1.0000	0.0000	138.0	1	2.0000	0.0000;
	110	2	39.0000	30.0000	0.0000	6.0000	1	0.9730	0.0000	138.0	1	2.0000	0.0000;
	111	2	0.0000	0.0000	0.0000	0.0000	1	0.9800	0.0000	138.0	1	2.0000	0.0000;
	112	2	68.0000	13.0000	0.0000	0.0000	1	0.9750	0.0000	138.0	1	2.0000	0.0000;
	113	2	6.0000	0.0000	0.0000	0.0000	1	0.9930	0.0000	138.0	1	2.0000	0.0000;
	114	1	8.0000	3.0000	0.0000	0.0000	1	1.0000	0.0000	138.0	1	2.0000	0.0000;
	115	1	22.0000	7.0000	0.0000	0.0000	1	1.0000	0.0000	138.0	1	2.0000	0.0000;
	116	2	184.0000	0.0000	0.0000	0.0000	1	1.0050	0.0000	345.0	1	2.0000	0.0000;
	117	1	20.0000	8.0000	0.0000	0.0000	1	1.0000	0.0000	138.0	1	2.0000	0.0000;
	118	1	33.0000	15.0000	0.0000	0.0000	1	1.0000	0.0000	138.0	1	2.0000	0.0000;
];

% generator data
% bus Pg Qg Qmax Qmin Vg mBase status Pmax Pmin
mpc.gen = [
	69	514.1697	-64.8588	0.0000	0.0000	1.0350	100.0	1	1000000000.0000	-1000000000.0000;
	1	0.0000	-3.1041	15.0000	-5.0000	0.9550	100.0	1	100.0000	0.0000;
	4	0.0000	-15.0093	300.0000	-300.0000	0.9980	100.0	1	100.0000	0.0000;
	6	0.0000	15.9298	50.0000	-13.0000	0.9900	100.0	1	100.0000	0.0000;
	8	0.0000	63.1385	300.0000	-300.0000	1.0150	100.0	1	100.0000	0.0000;
	10	450.0000	-51.0422	200.0000	-147.0000	1.0500	100.0	1	550.0000	0.0000;
	12	85.0000	91.2919	120.0000	-35.0000	0.9900	100.0	1	185.0000	0.0000;
	15	0.0000	7.1626	30.0000	-10.0000	0.9700	100.0	1	100.0000	0.0000;
	18	0.0000	28.4279	50.0000	-16.0000	0.9730	100.0	1	100.0000	0.0000;
	19	0.0000	-14.2725	24.0000	-8.0000	0.9620	100.0	1	100.0000	0.0000;
	24	0.0000	-14.9235	300.0000	-300.0000	0.9920	100.0	1	100.0000	0.0000;
	25	220.0000	50.0491	140.0000	-47.0000	1.0500	100.0	1	320.0000	0.0000;
	26	314.0000	10.1296	1000.0000	-1000.0000	1.0150	100.0	1	414.0000	0.0000;
	27	0.0000	3.9836	300.0000	-300.0000	0.9680	100.0	1	100.0000	0.0000;
	31	7.0000	32.5865	300.0000	-300.0000	0.9670	100.0	1	107.0000	0.0000;
	32	0.0000	-16.2775	42.0000	-14.0000	0.9630	100.0	1	100.0000	0.0000;
	34	0.0000	-20.8332	24.0000	-8.0000	0.9840	100.0	1	100.0000	0.0000;
	36	0.0000	7.7243	24.0000	-8.0000	0.9800	100.0	1	100.0000	0.0000;
	40	0.0000	28.4531	300.0000	-300.0000	0.9700	100.0	1	100.0000	0.0000;
	42	0.0000	41.0301	300.0000	-300.0000	0.9850	100.0	1	100.0000	0.0000;
	46	19.0000	-5.0195	100.0000	-100.0000	1.0050	100.0	1	119.0000	0.0000;
	49	204.0000	115.8988	210.0000	-85.0000	1.0250	100.0	1	304.0000	0.0000;
	54	48.0000	3.9053	300.0000	-300.0000	0.9550	100.0	1	148.0000	0.0000;
	55	0.0000	4.6642	23.0000	-8.0000	0.9520	100.0	1	100.0000	0.0000;
	56	0.0000	-2.2853	15.0000	-8.0000	0.9540	100.0	1	100.0000	0.0000;
	59	155.0000	76.8318	180.0000	-60.0000	0.9850	100.0	1	255.0000	0.0000;
	61	160.0000	-40.3946	300.0000	-100.0000	0.9950	100.0	1	260.0000	0.0000;
	62	0.0000	1.2596	20.0000	-20.0000	0.9980	100.0	1	100.0000	0.0000;
	65	391.0000	182.3987	200.0000	-67.0000	1.0050	100.0	1	491.0000	0.0000;
	66	392.0000	-1.9406	200.0000	-67.0000	1.0500	100.0	1	492.0000	0.0000;
	70	0.0000	9.6988	32.0000	-10.0000	0.9840	100.0	1	100.0000	0.0000;
	72	0.0000	-11.1285	100.0000	-100.0000	0.9800	100.0	1	100.0000	0.0000;
	73	0.0000	9.6522	100.0000	-100.0000	0.9910	100.0	1	100.0000	0.0000;
	74	0.0000	-5.6267	9.0000	-6.0000	0.9580	100.0	1	100.0000	0.0000;
	76	0.0000	5.2742	23.0000	-8.0000	0.9430	100.0	1	100.0000	0.0000;
	77	0.0000	12.1865	70.0000	-20.0000	1.0060	100.0	1	100.0000	0.0000;
	80	477.0000	146.1060	280.0000	-165.0000	1.0400	100.0	1	577.0000	0.0000;
	85	0.0000	-2.8679	23.0000	-8.0000	0.9850	100.0	1	100.0000	0.0000;
	87	4.0000	17.2480	1000.0000	-100.0000	1.0150	100.0	1	104.0000	0.0000;
	89	607.0000	-5.9039	300.0000	-210.0000	1.0050	100.0	1	707.0000	0.0000;
	90	0.0000	59.3083	300.0000	-300.0000	0.9850	100.0	1	100.0000	0.0000;
	91	0.0000	-13.0880	100.0000	-100.0000	0.9800	100.0	1	100.0000	0.0000;
	92	0.0000	-13.9592	9.0000	-3.0000	0.9900	100.0	1	100.0000	0.0000;
	99	0.0000	-17.5354	100.0000	-100.0000	1.0100	100.0	1	100.0000	0.0000;
	100	252.0000	95.5490	155.0000	-50.0000	1.0170	100.0	1	352.0000	0.0000;
	103	40.0000	75.4224	40.0000	-15.0000	1.0100	100.0	1	140.0000	0.0000;
	104	0.0000	2.3883	23.0000	-8.0000	0.9710	100.0	1	100.0000	0.0000;
	105	0.0000	-18.3345	23.0000	-8.0000	0.9650	100.0	1	100.0000	0.0000;
	107	0.0000	6.5578	200.0000	-200.0000	0.9520	100.0	1	100.0000	0.0000;
	110	0.0000	0.2808	23.0000	-8.0000	0.9730	100.0	1	100.0000	0.0000;
	111	36.0000	-1.8438	1000.0000	-100.0000	0.9800	100.0	1	136.0000	0.0000;
	112	0.0000	41.5117	1000.0000	-100.0000	0.9750	100.0	1	100.0000	0.0000;
	113	0.0000	6.7556	200.0000	-100.0000	0.9930	100.0	1	100.0000	0.0000;
	116	0.0000	213.0438	1000.0000	-1000.0000	1.0050	100.0	1	100.0000	0.0000;
];

% branch data
% fbus tbus r x b rateA rateB rateC ratio angle status angmin angmax
mpc.branch = [
	1	2	0.030300	0.099900	0.025400	9900.0	0.0	0.0	1.0000	0.0000	1	-360.0	360.0;
	1	3	0.012900	0.042400	0.010820	9900.0	0.0	0.0	1.0000	0.0000	1	-360.0	360.0;
	4	5	0.001760	0.007980	0.002100	9900.0	0.0	0.0	1.0000	0.0000	1	-360.0	360.0;
	3	5	0.024100	0.108000	0.028400	9900.0	0.0	0.0	1.0000	0.0000	1	-360.0	360.0;
	5	6	0.011900	0.054000	0.014260	9900.0	0.0	0.0	1.0000	0.0000	1	-360.0	360.0;
	6	7	0.004590	0.020800	0.005500	9900.0	0.0	0.0	1.0000	0.0000	1	-360.0	360.0;
	8	9	0.002440	0.030500	1.162000	9900.0	0.0	0.0	1.0000	0.0000	1	-360.0	360.0;
	9	10	0.002580	0.032200	1.230000	9900.0	0.0	0.0	1.0000	0.0000	1	-360.0	360.0;
	4	11	0.020900	0.068800	0.017480	9900.0	0.0	0.0	1.0000	0.0000	1	-360.0	360.0;
	5	11	0.020300	0.068200	0.017380	9900.0	0.0	0.0	1.0000	0.0000	1	-360.0	360.0;
	11	12	0.005950	0.019600	0.005020	9900.0	0.0	0.0	1.0000	0.0000	1	-360.0	360.0;
	2	12	0.018700	0.061600	0.015720	9900.0	0.0	0.0	1.0000	0.0000	1	-360.0	360.0;
	3	12	0.048400	0.160000	0.040600	9900.0	0.0	0.0	1.0000	0.0000	1	-360.0	360.0;
	7	12	0.008620	0.034000	0.008740	9900.0	0.0	0.0	1.0000	0.0000	1	-360.0	360.0;
	11	13	0.022250	0.073100	0.018760	9900.0	0.0	0.0	1.0000	0.0000	1	-360.0	360.0;
	12	14	0.021500	0.070700	0.018160	9900.0	0.0	0.0	1.0000	0.0000	1	-360.0	360.0;
	13	15	0.074400	0.244400	0.062680	9900.0	0.0	0.0	1.0000	0.0000	1	-360.0	360.0;
	14	15	0.059500	0.195000	0.050200	9900.0	0.0	0.0	1.0000	0.0000	1	-360.0	360.0;
	12	16	0.021200	0.083400	0.021400	9900.0	0.0	0.0	1.0000	0.0000	1	-360.0	360.0;
	15	17	0.013200	0.043700	0.044400	9900.0	0.0	0.0	1.0000	0.0000	1	-360.0	360.0;
	16	17	0.045400	0.180100	0.046600	9900.0	0.0	0.0	1.0000	0.0000	1	-360.0	360.0;
	17	18	0.012300	0.050500	0.012980	9900.0	0.0	0.0	1.0000	0.0000	1	-360.0	360.0;
	18	19	0.011190	0.049300	0.011420	9900.0	0.0	0.0	1.0000	0.0000	1	-360.0	360.0;
	19	20	0.025200	0.117000	0.029800	9900.0	0.0	0.0	1.0000	0.0000	1	-360.0	360.0;
	15	19	0.012000	0.039400	0.010100	9900.0	0.0	0.0	1.0000	0.0000	1	-360.0	360.0;
	20	21	0.018300	0.084900	0.021600	9900.0	0.0	0.0	1.0000	0.0000	1	-360.0	360.0;
	21	22	0.020900	0.097000	0.024600	9900.0	0.0	0.0	1.0000	0.0000	1	-360.0	360.0;
	22	23	0.034200	0.159000	0.040400	9900.0	0.0	0.0	1.0000	0.0000	1	-360.0	360.0;
	23	24	0.013500	0.049200	0.049800	9900.0	0.0	0.0	1.0000	0.0000	1	-360.0	360.0;
	23	25	0.015600	0.080000	0.086400	9900.0	0.0	0.0	1.0000	0.0000	1	-360.0	360.0;
	25	27	0.031800	0.163000	0.176400	9900.0	0.0	0.0	1.0000	0.0000	1	-360.0	360.0;
	27	28	0.019130	0.085500	0.021600	9900.0	0.0	0.0	1.0000	0.0000	1	-360.0	360.0;
	28	29	0.023700	0.094300	0.023800	9900.0	0.0	0.0	1.0000	0.0000	1	-360.0	360.0;
	8	30	0.004310	0.050400	0.514000	9900.0	0.0	0.0	1.0000	0.0000	1	-360.0	360.0;
	26	30	0.007990	0.086000	0.908000	9900.0	0.0	0.0	1.0000	0.0000	1	-360.0	360.0;
	17	31	0.047400	0.156300	0.039900	9900.0	0.0	0.0	1.0000	0.0000	1	-360.0	360.0;
	29	31	0.010800	0.033100	0.008300	9900.0	0.0	0.0	1.0000	0.0000	1	-360.0	360.0;
	23	32	0.031700	0.115300	0.117300	9900.0	0.0	0.0	1.0000	0.0000	1	-360.0	360.0;
	31	32	0.029800	0.098500	0.025100	9900.0	0.0	0.0	1.0000	0.0000	1	-360.0	360.0;
	27	32	0.022900	0.075500	0.019260	9900.0	0.0	0.0	1.0000	0.0000	1	-360.0	360.0;
	15	33	0.038000	0.124400	0.031940	9900.0	0.0	0.0	1.0000	0.0000	1	-360.0	360.0;
	19	34	0.075200	0.247000	0.063200	9900.0	0.0	0.0	1.0000	0.0000	1	-360.0	360.0;
	35	36	0.002240	0.010200	0.002680	9900.0	0.0	0.0	1.0000	0.0000	1	-360.0	360.0;
	35	37	0.011000	0.049700	0.013180	9900.0	0.0	0.0	1.0000	0.0000	1	-360.0	360.0;
	33	37	0.041500	0.142000	0.036600	9900.0	0.0	0.0	1.0000	0.0000	1	-360.0	360.0;
	34	36	0.008710	0.026800	0.005680	9900.0	0.0	0.0	1.0000	0.0000	1	-360.0	360.0;
	34	37	0.002560	0.009400	0.009840	9900.0	0.0	0.0	1.0000	0.0000	1	-360.0	360.0;
	37	39	0.032100	0.106000	0.027000	9900.0	0.0	0.0	1.0000	0.0000	1	-360.0	360.0;
	37	40	0.059300	0.168000	0.042000	9900.0	0.0	0.0	1.0000	0.0000	1	-360.0	360.0;
	30	38	0.004640	0.054000	0.422000	9900.0	0.0	0.0	1.0000	0.0000	1	-360.0	360.0;
	39	40	0.018400	0.060500	0.015520	9900.0	0.0	0.0	1.0000	0.0000	1	-360.0	360.0;
	40	41	0.014500	0.048700	0.012220	9900.0	0.0	0.0	1.0000	0.0000	1	-360.0	360.0;
	40	42	0.055500	0.183000	0.046600	9900.0	0.0	0.0	1.0000	0.0000	1	-360.0	360.0;
	41	42	0.041000	0.135000	0.034400	9900.0	0.0	0.0	1.0000	0.0000	1	-360.0	360.0;
	43	44	0.060800	0.245400	0.060680	9900.0	0.0	0.0	1.0000	0.0000	1	-360.0	360.0;
	34	43	0.041300	0.168100	0.042260	9900.0	0.0	0.0	1.0000	0.0000	1	-360.0	360.0;
	44	45	0.022400	0.090100	0.022400	9900.0	0.0	0.0	1.0000	0.0000	1	-360.0	360.0;
	45	46	0.040000	0.135600	0.033200	9900.0	0.0	0.0	1.0000	0.0000	1	-360.0	360.0;
	46	47	0.038000	0.127000	0.031600	9900.0	0.0	0.0	1.0000	0.0000	1	-360.0	360.0;
	46	48	0.060100	0.189000	0.047200	9900.0	0.0	0.0	1.0000	0.0000	1	-360.0	360.0;
	47	49	0.019100	0.062500	0.016040	9900.0	0.0	0.0	1.0000	0.0000	1	-360.0	360.0;
	42	49	0.071500	0.323000	0.086000	9900.0	0.0	0.0	1.0000	0.0000	1	-360.0	360.0;
	42	49	0.071500	0.323000	0.086000	9900.0	0.0	0.0	1.0000	0.0000	1	-360.0	360.0;
	45	49	0.068400	0.186000	0.044400	9900.0	0.0	0.0	1.0000	0.0000	1	-360.0	360.0;
	48	49	0.017900	0.050500	0.012580	9900.0	0.0	0.0	1.0000	0.0000	1	-360.0	360.0;
	49	50	0.026700	0.075200	0.018740	9900.0	0.0	0.0	1.0000	0.0000	1	-360.0	360.0;
	49	51	0.048600	0.137000	0.034200	9900.0	0.0	0.0	1.0000	0.0000	1	-360.0	360.0;
	51	52	0.020300	0.058800	0.013960	9900.0	0.0	0.0	1.0000	0.0000	1	-360.0	360.0;
	52	53	0.040500	0.163500	0.040580	9900.0	0.0	0.0	1.0000	0.0000	1	-360.0	360.0;
	53	54	0.026300	0.122000	0.031000	9900.0	0.0	0.0	1.0000	0.0000	1	-360.0	360.0;
	49	54	0.073000	0.289000	0.073800	9900.0	0.0	0.0	1.0000	0.0000	1	-360.0	360.0;
	49	54	0.086900	0.291000	0.073000	9900.0	0.0	0.0	1.0000	0.0000	1	-360.0	360.0;
	54	55	0.016900	0.070700	0.020200	9900.0	0.0	0.0	1.0000	0.0000	1	-360.0	360.0;
	54	56	0.002750	0.009550	0.007320	9900.0	0.0	0.0	1.0000	0.0000	1	-360.0	360.0;
	55	56	0.004880	0.015100	0.003740	9900.0	0.0	0.0	1.0000	0.0000	1	-360.0	360.0;
	56	57	0.034300	0.096600	0.024200	9900.0	0.0	0.0	1.0000	0.0000	1	-360.0	360.0;
	50	57	0.047400	0.134000	0.033200	9900.0	0.0	0.0	1.0000	0.0000	1	-360.0	360.0;
	56	58	0.034300	0.096600	0.024200	9900.0	0.0	0.0	1.0000	0.0000	1	-360.0	360.0;
	51	58	0.025500	0.071900	0.017880	9900.0	0.0	0.0	1.0000	0.0000	1	-360.0	360.0;
	54	59	0.050300	0.229300	0.059800	9900.0	0.0	0.0	1.0000	0.0000	1	-360.0	360.0;
	56	59	0.082500	0.251000	0.056900	9900.0	0.0	0.0	1.0000	0.0000	1	-360.0	360.0;
	56	59	0.080300	0.239000	0.053600	9900.0	0.0	0.0	1.0000	0.0000	1	-360.0	360.0;
	55	59	0.047390	0.215800	0.056460	9900.0	0.0	0.0	1.0000	0.0000	1	-360.0	360.0;
	59	60	0.031700	0.145000	0.037600	9900.0	0.0	0.0	1.0000	0.0000	1	-360.0	360.0;
	59	61	0.032800	0.150000	0.038800	9900.0	0.0	0.0	1.0000	0.0000	1	-360.0	360.0;
	60	61	0.002640	0.013500	0.014560	9900.0	0.0	0.0	1.0000	0.0000	1	-360.0	360.0;
	60	62	0.012300	0.056100	0.014680	9900.0	0.0	0.0	1.0000	0.0000	1	-360.0	360.0;
	61	62	0.008240	0.037600	0.009800	9900.0	0.0	0.0	1.0000	0.0000	1	-360.0	360.0;
	63	64	0.001720	0.020000	0.216000	9900.0	0.0	0.0	1.0000	0.0000	1	-360.0	360.0;
	38	65	0.009010	0.098600	1.046000	9900.0	0.0	0.0	1.0000	0.0000	1	-360.0	360.0;
	64	65	0.002690	0.030200	0.380000	9900.0	0.0	0.0	1.0000	0.0000	1	-360.0	360.0;
	49	66	0.018000	0.091900	0.024800	9900.0	0.0	0.0	1.0000	0.0000	1	-360.0	360.0;
	49	66	0.018000	0.091900	0.024800	9900.0	0.0	0.0	1.0000	0.0000	1	-360.0	360.0;
	62	66	0.048200	0.218000	0.057800	9900.0	0.0	0.0	1.0000	0.0000	1	-360.0	360.0;
	62	67	0.025800	0.117000	0.031000	9900.0	0.0	0.0	1.0000	0.0000	1	-360.0	360.0;
	66	67	0.022400	0.101500	0.026820	9900.0	0.0	0.0	1.0000	0.0000	1	-360.0	360.0;
	47	69	0.084400	0.277800	0.070920	9900.0	0.0	0.0	1.0000	0.0000	1	-360.0	360.0;
	49	69	0.098500	0.324000	0.082800	9900.0	0.0	0.0	1.0000	0.0000	1	-360.0	360.0;
	69	70	0.030000	0.127000	0.122000	9900.0	0.0	0.0	1.0000	0.0000	1	-360.0	360.0;
	24	70	0.002210	0.411500	0.101980	9900.0	0.0	0.0	1.0000	0.0000	1	-360.0	360.0;
	70	71	0.008820	0.035500	0.008780	9900.0	0.0	0.0	1.0000	0.0000	1	-360.0	360.0;
	24	72	0.048800	0.196000	0.048800	9900.0	0.0	0.0	1.0000	0.0000	1	-360.0	360.0;
	71	72	0.044600	0.180000	0.044440	9900.0	0.0	0.0	1.0000	0.0000	1	-360.0	360.0;
	71	73	0.008660	0.045400	0.011780	9900.0	0.0	0.0	1.0000	0.0000	1	-360.0	360.0;
	70	74	0.040100	0.132300	0.033680	9900.0	0.0	0.0	1.0000	0.0000	1	-360.0	360.0;
	70	75	0.042800	0.141000	0.036000	9900.0	0.0	0.0	1.0000	0.0000	1	-360.0	360.0;
	69	75	0.040500	0.122000	0.124000	9900.0	0.0	0.0	1.0000	0.0000	1	-360.0	360.0;
	74	75	0.012300	0.040600	0.010340	9900.0	0.0	0.0	1.0000	0.0000	1	-360.0	360.0;
	76	77	0.044400	0.148000	0.036800	9900.0	0.0	0.0	1.0000	0.0000	1	-360.0	360.0;
	69	77	0.030900	0.101000	0.103800	9900.0	0.0	0.0	1.0000	0.0000	1	-360.0	360.0;
	75	77	0.060100	0.199900	0.049780	9900.0	0.0	0.0	1.0000	0.0000	1	-360.0	360.0;
	77	78	0.003760	0.012400	0.012640	9900.0	0.0	0.0	1.0000	0.0000	1	-360.0	360.0;
	78	79	0.005460	0.024400	0.006480	9900.0	0.0	0.0	1.0000	0.0000	1	-360.0	360.0;
	77	80	0.017000	0.048500	0.047200	9900.0	0.0	0.0	1.0000	0.0000	1	-360.0	360.0;
	77	80	0.029400	0.105000	0.022800	9900.0	0.0	0.0	1.0000	0.0000	1	-360.0	360.0;
	79	80	0.015600	0.070400	0.018700	9900.0	0.0	0.0	1.0000	0.0000	1	-360.0	360.0;
	77	82	0.029800	0.085300	0.081740	9900.0	0.0	0.0	1.0000	0.0000	1	-360.0	360.0;
	82	83	0.011200	0.036650	0.037960	9900.0	0.0	0.0	1.0000	0.0000	1	-360.0	360.0;
	83	84	0.062500	0.132000	0.025800	9900.0	0.0	0.0	1.0000	0.0000	1	-360.0	360.0;
	83	85	0.043000	0.148000	0.034800	9900.0	0.0	0.0	1.0000	0.0000	1	-360.0	360.0;
	84	85	0.030200	0.064100	0.012340	9900.0	0.0	0.0	1.0000	0.0000	1	-360.0	360.0;
	85	86	0.035000	0.123000	0.027600	9900.0	0.0	0.0	1.0000	0.0000	1	-360.0	360.0;
	85	88	0.020000	0.102000	0.027600	9900.0	0.0	0.0	1.0000	0.0000	1	-360.0	360.0;
	85	89	0.023900	0.173000	0.047000	9900.0	0.0	0.0	1.0000	0.0000	1	-360.0	360.0;
	88	89	0.013900	0.071200	0.019340	9900.0	0.0	0.0	1.0000	0.0000	1	-360.0	360.0;
	89	90	0.051800	0.188000	0.052800	9900.0	0.0	0.0	1.0000	0.0000	1	-360.0	360.0;
	89	90	0.023800	0.099700	0.106000	9900.0	0.0	0.0	1.0000	0.0000	1	-360.0	360.0;
	90	91	0.025400	0.083600	0.021400	9900.0	0.0	0.0	1.0000	0.0000	1	-360.0	360.0;
	89	92	0.009900	0.050500	0.054800	9900.0	0.0	0.0	1.0000	0.0000	1	-360.0	360.0;
	89	92	0.039300	0.158100	0.041400	9900.0	0.0	0.0	1.0000	0.0000	1	-360.0	360.0;
	91	92	0.038700	0.127200	0.032680	9900.0	0.0	0.0	1.0000	0.0000	1	-360.0	360.0;
	92	93	0.025800	0.084800	0.021800	9900.0	0.0	0.0	1.0000	0.0000	1	-360.0	360.0;
	92	94	0.048100	0.158000	0.040600	9900.0	0.0	0.0	1.0000	0.0000	1	-360.0	360.0;
	93	94	0.022300	0.073200	0.018760	9900.0	0.0	0.0	1.0000	0.0000	1	-360.0	360.0;
	94	95	0.013200	0.043400	0.011100	9900.0	0.0	0.0	1.0000	0.0000	1	-360.0	360.0;
	80	96	0.035600	0.182000	0.049400	9900.0	0.0	0.0	1.0000	0.0000	1	-360.0	360.0;
	82	96	0.016200	0.053000	0.054400	9900.0	0.0	0.0	1.0000	0.0000	1	-360.0	360.0;
	94	96	0.026900	0.086900	0.023000	9900.0	0.0	0.0	1.0000	0.0000	1	-360.0	360.0;
	80	97	0.018300	0.093400	0.025400	9900.0	0.0	0.0	1.0000	0.0000	1	-360.0	360.0;
	80	98	0.023800	0.108000	0.028600	9900.0	0.0	0.0	1.0000	0.0000	1	-360.0	360.0;
	80	99	0.045400	0.206000	0.054600	9900.0	0.0	0.0	1.0000	0.0000	1	-360.0	360.0;
	92	100	0.064800	0.295000	0.047200	9900.0	0.0	0.0	1.0000	0.0000	1	-360.0	360.0;
	94	100	0.017800	0.058000	0.060400	9900.0	0.0	0.0	1.0000	0.0000	1	-360.0	360.0;
	95	96	0.017100	0.054700	0.014740	9900.0	0.0	0.0	1.0000	0.0000	1	-360.0	360.0;
	96	97	0.017300	0.088500	0.024000	9900.0	0.0	0.0	1.0000	0.0000	1	-360.0	360.0;
	98	100	0.039700	0.179000	0.047600	9900.0	0.0	0.0	1.0000	0.0000	1	-360.0	360.0;
	99	100	0.018000	0.081300	0.021600	9900.0	0.0	0.0	1.0000	0.0000	1	-360.0	360.0;
	100	101	0.027700	0.126200	0.032800	9900.0	0.0	0.0	1.0000	0.0000	1	-360.0	360.0;
	92	102	0.012300	0.055900	0.014640	9900.0	0.0	0.0	1.0000	0.0000	1	-360.0	360.0;
	101	102	0.024600	0.112000	0.029400	9900.0	0.0	0.0	1.0000	0.0000	1	-360.0	360.0;
	100	103	0.016000	0.052500	0.053600	9900.0	0.0	0.0	1.0000	0.0000	1	-360.0	360.0;
	100	104	0.045100	0.204000	0.054100	9900.0	0.0	0.0	1.0000	0.0000	1	-360.0	360.0;
	103	104	0.046600	0.158400	0.040700	9900.0	0.0	0.0	1.0000	0.0000	1	-360.0	360.0;
	103	105	0.053500	0.162500	0.040800	9900.0	0.0	0.0	1.0000	0.0000	1	-360.0	360.0;
	100	106	0.060500	0.229000	0.062000	9900.0	0.0	0.0	1.0000	0.0000	1	-360.0	360.0;
	104	105	0.009940	0.037800	0.009860	9900.0	0.0	0.0	1.0000	0.0000	1	-360.0	360.0;
	105	106	0.014000	0.054700	0.014340	9900.0	0.0	0.0	1.0000	0.0000	1	-360.0	360.0;
	105	107	0.053000	0.183000	0.047200	9900.0	0.0	0.0	1.0000	0.0000	1	-360.0	360.0;
	105	108	0.026100	0.070300	0.018440	9900.0	0.0	0.0	1.0000	0.0000	1	-360.0	360.0;
	106	107	0.053000	0.183000	0.047200	9900.0	0.0	0.0	1.0000	0.0000	1	-360.0	360.0;
	108	109	0.010500	0.028800	0.007600	9900.0	0.0	0.0	1.0000	0.0000	1	-360.0	360.0;
	103	110	0.039060	0.181300	0.046100	9900.0	0.0	0.0	1.0000	0.0000	1	-360.0	360.0;
	109	110	0.027800	0.076200	0.020200	9900.0	0.0	0.0	1.0000	0.0000	1	-360.0	360.0;
	110	111	0.022000	0.075500	0.020000	9900.0	0.0	0.0	1.0000	0.0000	1	-360.0	360.0;
	110	112	0.024700	0.064000	0.062000	9900.0	0.0	0.0	1.0000	0.0000	1	-360.0	360.0;
	17	113	0.009130	0.030100	0.007680	9900.0	0.0	0.0	1.0000	0.0000	1	-360.0	360.0;
	32	113	0.061500	0.203000	0.051800	9900.0	0.0	0.0	1.0000	0.0000	1	-360.0	360.0;
	32	114	0.013500	0.061200	0.016280	9900.0	0.0	0.0	1.0000	0.0000	1	-360.0	360.0;
	27	115	0.016400	0.074100	0.019720	9900.0	0.0	0.0	1.0000	0.0000	1	-360.0	360.0;
	114	115	0.002300	0.010400	0.002760	9900.0	0.0	0.0	1.0000	0.0000	1	-360.0	360.0;
	12	117	0.032900	0.140000	0.035800	9900.0	0.0	0.0	1.0000	0.0000	1	-360.0	360.0;
	75	118	0.014500	0.048100	0.011980	9900.0	0.0	0.0	1.0000	0.0000	1	-360.0	360.0;
	76	118	0.016400	0.054400	0.013560	9900.0	0.0	0.0	1.0000	0.0000	1	-360.0	360.0;
	8	5	0.000000	0.026700	-0.000000	9900.0	0.0	0.0	0.9850	0.0000	1	-360.0	360.0;
	26	25	0.000000	0.038200	-0.000000	9900.0	0.0	0.0	0.9600	0.0000	1	-360.0	360.0;
	30	17	0.000000	0.038800	-0.000000	9900.0	0.0	0.0	0.9600	0.0000	1	-360.0	360.0;
	38	37	0.000000	0.037500	-0.000000	9900.0	0.0	0.0	0.9350	0.0000	1	-360.0	360.0;
	63	59	0.000000	0.038600	-0.000000	9900.0	0.0	0.0	0.9600	0.0000	1	-360.0	360.0;
	64	61	0.000000	0.026800	-0.000000	9900.0	0.0	0.0	0.9850	0.0000	1	-360.0	360.0;
	65	66	0.000000	0.037000	-0.000000	9900.0	0.0	0.0	0.9350	0.0000	1	-360.0	360.0;
	65	68	0.001387	0.016041	-0.636376	9900.0	0.0	0.0	1.0000	0.0000	1	-360.0	360.0;
	68	69	0.000000	0.037000	-0.000000	9900.0	0.0	0.0	0.9350	0.0000	1	-360.0	360.0;
	81	68	0.001764	0.020282	-0.804716	9900.0	0.0	0.0	1.0000	0.0000	1	-360.0	360.0;
	81	80	0.000000	0.037000	-0.000000	9900.0	0.0	0.0	0.9350	0.0000	1	-360.0	360.0;
	87	86	0.028411	0.207870	-0.044398	9900.0	0.0	0.0	1.0000	0.0000	1	-360.0	360.0;
	116	68	0.000340	0.004051	-0.163973	9900.0	0.0	0.0	1.0000	0.0000	1	-360.0	360.0;
];
